%nprocshared=8
%chk=emmim.chk
# opt pbepbe def2svp

emmim_opt

1 1
 C                  1.16734900    0.52966400   -0.12982000
 N                  2.38126300   -0.01059900    0.09696400
 C                  2.28528000   -1.38853900    0.01598000
 C                  0.99133300   -1.68195700   -0.26616000
 N                  0.31017900   -0.48186900   -0.35837300
 C                 -1.14172600   -0.35908300   -0.61814300
 C                 -1.97908900   -0.52495400    0.65403300
 H                 -1.72962600   -1.48490100    1.11827900
 H                 -1.70132100    0.25056000    1.37778400
 H                 -1.30680700    0.60693400   -1.09342700
 H                 -1.39184100   -1.12362100   -1.35623300
 H                  0.50079300   -2.62949600   -0.41407000
 H                  3.13850100   -2.02971200    0.16083200
 C                  3.61677600    0.73174000    0.38111600
 H                  3.53266700    1.26027400    1.33046800
 H                  4.43480000    0.01864200    0.44702600
 H                  3.82885400    1.43625400   -0.42196200
 C                  0.84505800    1.98133700   -0.15633800
 H                  0.76575700    2.34838500   -1.18453400
 H                 -0.10075100    2.18516300    0.34705300
 H                  1.61900100    2.56121800    0.34463800
 H                 -3.49075200   -0.46537100    0.38342800

